/*--------------------------------*- C++ -*----------------------------------*\
| =========                 |                                                 |
| \\      /  F ield         | OpenFOAM: The Open Source CFD Toolbox           |
|  \\    /   O peration     | Version:  v2012                                 |
|   \\  /    A nd           | Website:  www.openfoam.com                      |
|    \\/     M anipulation  |                                                 |
\*---------------------------------------------------------------------------*/
FoamFile
{
    version     2.0;
    format      ascii;
    class       dictionary;
    location    "system";
    object      topoSetDict;
}
// * * * * * * * * * * * * * * * * * * * * * * * * * * * * * * * * * * * * * //

actions
(
      {
          // Mandatory (inherited) entries
          name        outletFaces;
          type        faceSet;
          action      new;
      
          // Mandatory entries
          source      cylinderToFace;
          p1          (1.1875 .6075 -0.00001);
          p2          (1.1875 .6075 0.00001);
          radius      0.025;
      }
     {
         // Mandatory (inherited) entries
         name        bottomFaces;
         type        faceSet;
         action      new;
     
         // Mandatory entries
         source      patchToFace;
     
         // Conditional mandatory entries
         // Select either of the below
     
         // Option-2
         patch    bottom;
     }
     {
         // Mandatory (inherited) entries
         name        bottomFaces;
         type        faceSet;
         action      subtract;
     
         // Mandatory entries
         source      faceToFace;
     
         // Conditional mandatory entries
         // Select either of the below
         set     outletFaces;
     }
      {
          // Mandatory (inherited) entries
          name        inletFaces;
          type        faceSet;
          action      new;
      
          // Mandatory entries
          source      boxToFace;
          min          (-1.1875 -0.6075 0.85999);
          max          ( 1.1875 -0.5075 0.86001);
      }
     {
         // Mandatory (inherited) entries
         name        topFaces;
         type        faceSet;
         action      new;
     
         // Mandatory entries
         source      patchToFace;
     
         // Conditional mandatory entries
         // Select either of the below
     
         // Option-2
         patch    top;
     }
     {
         // Mandatory (inherited) entries
         name        topFaces;
         type        faceSet;
         action      subtract;
     
         // Mandatory entries
         source      faceToFace;
     
         // Conditional mandatory entries
         // Select either of the below
         set     inletFaces;
     }
     {
         name       porosityCells;
         type       cellSet;
         action     new;

         source     boxToCell;

         boxes
         (
             (-1.0 -0.4 0.5)(-0.2 -0.1 0.8) 
             ( 0.2 -0.4 0.5)( 1.0 -0.1 0.8) 
             (-1.0 -0.4 0.1)(-0.2 -0.1 0.4) 
             ( 0.2 -0.4 0.1)( 1.0 -0.1 0.4) 
             (-1.0  0.1 0.5)(-0.2  0.4 0.8) 
             ( 0.2  0.1 0.5)( 1.0  0.4 0.8) 
             (-1.0  0.1 0.1)(-0.2  0.4 0.4) 
             ( 0.2  0.1 0.1)( 1.0  0.4 0.4) 
         );
     }
     {
        // Mandatory (inherited) entries
        name        porosity;
        type        cellZoneSet;
        action      new;

        // Mandatory entries
        source      setToCellZone;
        set         porosityCells;
    } 
    {
        // Mandatory (inherited) entries
        name        internal;
        type        cellZoneSet;
        action      subtract;

        // Mandatory entries
        source      setToCellZone;
        set         porosityCells;
    }
);

// ************************************************************************* //
